
*** ChampSim Multicore Out-of-Order Simulator ***

Warmup Instructions: 1000000
Simulation Instructions: 10000000
Number of CPUs: 1
LLC sets: 4096
LLC ways: 16
Off-chip DRAM Size: 4096 MB Channels: 1 Width: 64-bit Data Rate: 3200 MT/s

CPU 0 runs /home/ak/ChampSim-master/dpc3_traces/456.hmmer-327B.champsimtrace.xz
CPU 0 GSHARE branch predictor

Warmup complete CPU 0 instructions: 1000001 cycles: 482124 (Simulation time: 0 hr 0 min 2 sec) 

Heartbeat CPU 0 instructions: 10000000 cycles: 6560348 heartbeat IPC: 1.52431 cumulative IPC: 1.4807 (Simulation time: 0 hr 0 min 14 sec) 
Finished CPU 0 instructions: 10000000 cycles: 6748146 cumulative IPC: 1.48189 (Simulation time: 0 hr 0 min 16 sec) 

ChampSim completed all CPUs

Region of Interest Statistics

CPU 0 cumulative IPC: 1.48189 instructions: 10000000 cycles: 6748146
L1D TOTAL     ACCESS:    3416813  HIT:    3369422  MISS:      47391
L1D LOAD      ACCESS:    2851475  HIT:    2830702  MISS:      20773
L1D RFO       ACCESS:     565338  HIT:     538720  MISS:      26618
L1D PREFETCH  ACCESS:          0  HIT:          0  MISS:          0
L1D WRITEBACK ACCESS:          0  HIT:          0  MISS:          0
L1D PREFETCH  REQUESTED:          0  ISSUED:          0  USEFUL:          0  USELESS:          0
L1D AVERAGE MISS LATENCY: 109.6 cycles
L1I TOTAL     ACCESS:    1656733  HIT:    1656733  MISS:          0
L1I LOAD      ACCESS:    1656733  HIT:    1656733  MISS:          0
L1I RFO       ACCESS:          0  HIT:          0  MISS:          0
L1I PREFETCH  ACCESS:          0  HIT:          0  MISS:          0
L1I WRITEBACK ACCESS:          0  HIT:          0  MISS:          0
L1I PREFETCH  REQUESTED:          0  ISSUED:          0  USEFUL:          0  USELESS:          0
L1I AVERAGE MISS LATENCY: -nan cycles
L2C TOTAL     ACCESS:      73965  HIT:      45271  MISS:      28694
L2C LOAD      ACCESS:      20744  HIT:      18665  MISS:       2079
L2C RFO       ACCESS:      26618  HIT:          3  MISS:      26615
L2C PREFETCH  ACCESS:          0  HIT:          0  MISS:          0
L2C WRITEBACK ACCESS:      26603  HIT:      26603  MISS:          0
L2C PREFETCH  REQUESTED:          0  ISSUED:          0  USEFUL:          0  USELESS:          0
L2C AVERAGE MISS LATENCY: 155.92 cycles
LLC TOTAL     ACCESS:      54591  HIT:      27589  MISS:      27002
LLC LOAD      ACCESS:       2079  HIT:       1692  MISS:        387
LLC RFO       ACCESS:      26615  HIT:          0  MISS:      26615
LLC PREFETCH  ACCESS:          0  HIT:          0  MISS:          0
LLC WRITEBACK ACCESS:      25897  HIT:      25897  MISS:          0
LLC PREFETCH  REQUESTED:          0  ISSUED:          0  USEFUL:          0  USELESS:          0
LLC AVERAGE MISS LATENCY: 133.757 cycles
Major fault: 0 Minor fault: 490

DRAM Statistics
 CHANNEL 0
 RQ ROW_BUFFER_HIT:      23783  ROW_BUFFER_MISS:       3219
 DBUS_CONGESTED:          0
 WQ ROW_BUFFER_HIT:          0  ROW_BUFFER_MISS:          0  FULL:          0

 AVG_CONGESTED_CYCLE: -

CPU 0 Branch Prediction Accuracy: 99.7805% MPKI: 0.0935 Average ROB Occupancy at Mispredict: 171.463

Branch types
NOT_BRANCH: 9573966 95.7397%
BRANCH_DIRECT_JUMP: 468 0.00468%
BRANCH_INDIRECT: 0 0%
BRANCH_CONDITIONAL: 425528 4.25528%
BRANCH_DIRECT_CALL: 0 0%
BRANCH_INDIRECT_CALL: 0 0%
BRANCH_RETURN: 0 0%
BRANCH_OTHER: 0 0%

